powerflow/Codes/PF_Formulation/resultados_csv/17/caso_red/resultados_barras_SIN.csv
ID_Barra,Tipo_Barra,Tensao_Mag_pu,Tensao_Ang_graus,P_Geracao_pu,Q_Geracao_pu,P_Carga_pu,Q_Carga_pu,Desvio_Tensao_QLIM_pu,Corte_Reativo_VLIM_pu
5001,1,1.0241570739468755,-2.5347621229916744,0.0,0.0,0.0,0.0,0.0,1.0849818880242819e-5
5002,1,0.9918437545702744,21.070337755547065,0.0,0.0,0.0,0.0,0.0,-0.0004109255832026677
5003,1,1.0120629317607606,-2.728188108292357,0.0,0.0,0.0,0.0,0.0,-1.558222630104361e-5
5004,1,1.0131191971078324,-3.0280661567763105,0.0,0.0,0.0,0.0,0.0,-1.055922688362325e-5
5005,1,1.033797262918973,-3.0280661567763105,0.0,0.0,0.0,0.0,0.0,-1.0559173270044078e-5
5006,2,0.9884089727881291,-3.0280661567763105,0.0,0.0,0.0,0.0,0.0,0.0
5008,1,0.9930925970608707,21.13893828590036,0.0,0.0,0.0,0.0,0.0,-0.00040980787500072155
5009,2,1.0328236974553726,-2.728188108292357,0.0,0.0,0.0,0.0,0.0,0.0
5010,2,1.0328235472357432,-2.728188108292357,0.0,0.0,0.0,0.0,0.0,0.0
5011,2,1.0327172773068984,-2.728188108292357,0.0,0.0,0.0,0.0,0.0,0.0
5012,2,1.0328233854605942,-2.728188108292357,0.0,0.0,0.0,0.0,0.0,0.0
5013,2,1.0327172773068984,-2.728188108292357,0.0,0.0,0.0,0.0,0.0,0.0
5014,2,1.0327172773068984,-2.728188108292357,0.0,0.0,0.0,0.0,0.0,0.0
5015,2,0.9854556297573132,-2.728188108292357,0.0,0.0,0.0,0.0,0.0,0.0
5016,2,0.9864841257135663,-3.0280661567763105,0.0,0.0,0.0,0.0,0.0,0.0
5019,1,0.9920705608168617,19.207614977796638,0.0,0.0,0.0,0.0,0.0,-0.00040490135703745303
5020,1,0.9727732861228549,11.652799802091835,0.0,0.0,0.0,0.0,0.0,9.198675905483979e-5
5021,1,0.9930883221898313,-23.076765516252145,0.0,0.0,0.0,0.0,0.0,-0.00018695285983250426
5022,2,0.949999990753153,3.489974097936282,11.19,-4.658487972314407,0.0,0.0,0.0,0.0
5028,1,1.0131490225044149,-3.0283860560369917,0.0,0.0,0.0,0.0,0.0,-1.0559144507622131e-5
5029,1,1.0120927838859424,-2.728508628407445,0.0,0.0,0.0,0.0,0.0,-1.5582144196939268e-5
5030,2,0.9854846970651824,-2.728508628407445,0.0,0.0,0.0,0.0,0.0,0.0
5031,1,0.9854865549243227,-2.728508628407445,0.0,0.0,0.0,0.0,0.0,-1.5582086840010054e-5
5032,2,0.9865131669955357,-3.0283860560369917,0.0,0.0,0.0,0.0,0.0,0.0
5033,1,0.986514424652226,-3.0283860560369917,0.0,0.0,0.0,0.0,0.0,-1.0559118863357e-5
5034,1,0.9959755912962913,23.64418365472911,0.0,0.0,0.0,0.0,0.0,-0.0003176526183112374
5035,1,1.0061916007310874,19.420602489349207,0.0,0.0,0.0,0.0,0.0,-0.00030707314194949203
5036,1,1.0018786164848872,21.260624767753388,0.0,0.0,0.0,0.0,0.0,-0.0005221506123968502
5037,1,1.0040055178219758,6.126056311172806,0.0,0.0,0.0,0.0,0.0,2.0189808614871682e-5
5038,1,0.9720844316904093,7.759394357237987,0.0,0.0,0.0,0.0,0.0,2.1655642167676523e-5
5039,1,0.96925482381906,9.203136824340618,0.0,0.0,0.0,0.0,0.0,2.1834860673558476e-5
5040,1,0.9563021742269822,10.459392756358223,0.0,0.0,-0.18600000000000003,0.158,0.0,2.2595872696548855e-5
5041,1,1.0075903432200788,19.25419737471673,0.0,0.0,0.0,0.0,0.0,-0.000512712784888646
5042,1,1.0081952438133974,21.05883696549959,0.0,0.0,0.0,0.0,0.0,-0.0005209466111461001
5043,1,1.0098414675139877,21.16625677733173,0.0,0.0,0.0,0.0,0.0,-0.0005207284853469621
5044,1,1.00715118282321,22.233342666945294,0.0,0.0,-0.29600000000000004,0.0538,0.0,-0.0005250309765343749
5045,1,0.9994083415390023,-14.430212032985597,0.0,0.0,0.0,0.0,0.0,-1.7421923374458998e-5
5046,1,0.9934100285029844,-13.177014783281871,0.0,0.0,0.0,0.0,0.0,-1.7865430116859724e-5
5047,1,0.9974830711020526,-13.596007364991406,0.0,0.0,0.0,0.0,0.0,-1.7718822861159543e-5
5048,1,0.9921887261519793,-12.401261869187383,0.0,0.0,-0.109,0.0555,0.0,-1.810419320512394e-5
5049,1,0.9916369762800351,-18.21124058787679,0.0,0.0,0.0,0.0,0.0,3.249962239629886e-5
5050,1,1.0357697466763287,-1.6724238560005105,0.0,0.0,0.0,0.0,0.0,1.3338748519606307e-12
5051,2,0.9883961542044198,3.7584836971262314,2.3,-0.4226488769483732,0.0,0.0,0.0,0.0
5054,2,0.9883961542044392,3.758483697126125,2.3,-0.42264887694792364,0.0,0.0,0.0,0.0
5057,1,0.9914494507249926,-18.16750315410159,0.0,0.0,0.0,0.0,0.0,3.25302897916065e-5
5058,1,0.9882900928906828,-17.039327925268545,0.0,0.0,0.0,0.0,0.0,3.2760452144084005e-5
5059,1,0.9886304361996072,-17.346938548781296,0.0,0.0,0.0,0.0,0.0,3.273950808747964e-5
5060,1,1.023119819334386,-6.07116109123769,0.0,0.0,0.0,0.0,0.0,6.818708451549561e-5
5061,3,0.9499999901122954,0.0,12.034978923616611,-4.852689272302977,0.0,0.0,0.0,0.0
5067,1,0.9877947614798999,-16.353618053668036,0.0,0.0,-0.06,0.00885,0.0,3.28972784472847e-5
5068,1,1.030219687440659,17.273906337523393,0.0,0.0,0.0,0.0,0.0,-0.0008091448526490768
5069,1,1.029994274768448,17.273906337523393,0.0,0.0,0.0,0.0,0.0,-0.0008094990127644446
5071,1,1.0169343485914968,15.833130723699158,0.0,0.0,0.0,0.0,0.0,-0.000858124342920976
5073,1,1.0290602252584542,17.15678477045364,0.0,0.0,0.032,0.015,0.0,-0.0008135108178610943
5075,1,1.0415991862735952,19.488998237725028,0.0,0.0,-0.12,0.044500000000000005,0.0,-0.0008415102207863993
5078,1,1.0117418520335923,22.738813875429404,0.0,0.0,-0.315,0.0463,0.0,-0.0005253373060812992
5079,1,1.0422648544016055,19.649334050828067,0.0,0.0,-0.1,0.038,0.0,-0.0007980256159744302
5081,1,0.9956151389567948,4.401042003106166,0.0,0.0,0.0,0.0,0.0,-1.6258566037954785e-5
5083,1,0.9893035637954597,1.5202540008115637,0.0,0.0,1.7310000000000003,0.37799999999999995,0.0,-1.670535511684957e-5
5090,1,1.0472168885046909,-2.474906351610053,0.0,0.0,0.0,0.0,0.0,8.042183765246232e-5
5091,1,0.9823010165726409,-3.498345163140079,0.0,0.0,0.0,0.0,0.0,0.00030252953949240935
5092,1,0.9788003428881706,-3.749943566965811,0.0,0.0,0.0,0.0,0.0,0.0003087528850415008
5093,1,0.9697446196972248,-4.936783060498172,0.0,0.0,0.335,0.133,0.0,0.0003149916500847657
5096,1,1.006178613377062,4.399296971322103,0.0,0.0,0.0,0.0,0.0,-1.3521116432770646e-5
5097,1,1.006180102041814,4.399296971322103,0.0,0.0,0.0,0.0,0.0,-1.3521076477191443e-5
5098,1,0.9805100704229464,-3.1213838125265405,0.0,0.0,0.0,0.0,0.0,0.0003080955911054858
5099,1,0.9766857353628673,-5.12201485256202,0.0,0.0,0.415,0.171,0.0,0.00031043248548349295
5100,1,1.0427060634981014,-3.02304626279102,0.0,0.0,0.0,0.0,0.0,0.00011368574465569706
5101,1,0.981694725139713,-3.7409691128817255,0.0,0.0,0.0,0.0,0.0,0.00034283990705580975
5102,1,0.9739421161784761,-4.551220767671274,0.0,0.0,0.0,0.0,0.0,0.00034856801198740694
5103,1,0.9746001819091891,-4.520524924175197,0.0,0.0,-0.004,0.0,0.0,0.00034835866633859243
5104,1,0.9738454381232706,-4.551220767671274,0.0,0.0,0.0,0.0,0.0,0.00034863722654524936
5106,1,0.9707459723791865,-4.9410766859639645,0.0,0.0,0.009999999999999998,0.005,0.0,0.0003511548810833447
5110,1,0.9597246475189429,-11.078304053392124,0.0,0.0,0.0,0.0,0.0,0.010540012049072402
5111,1,0.9839541772926864,-9.15519912221925,0.0,0.0,0.0,0.0,0.0,0.0028262513172923266
5113,1,0.9609924136471477,-10.29541749468746,0.0,0.0,0.535,0.353,0.0,0.0015143478488461532
5115,1,1.0500000104784148,-16.880576044500803,0.0,0.0,0.512,0.128,0.0,0.021220759907978705
5116,1,1.0500000104784148,-16.880576044500803,0.0,0.0,0.512,0.128,0.0,0.021220759910605607
5117,1,1.050000010494763,-15.660329701722628,0.0,0.0,0.512,0.128,0.0,0.04270598481309065
5118,1,1.0341299741659395,-16.880576044500803,0.0,0.0,0.0,0.0,0.0,0.021882229670350688
5119,1,1.0341299741678158,-16.880576044500803,0.0,0.0,0.0,0.0,0.0,0.021882229667803774
5120,1,1.0406083894128269,-15.660329701722628,0.0,0.0,0.0,0.0,0.0,0.04348385877230684
5121,1,0.9684529056952544,-2.3549306443046194,0.0,0.0,0.0,0.0,0.0,0.0001651165299995993
5123,1,0.9726735102084871,-5.270065879423719,0.0,0.0,1.6410000000000002,0.888,0.0,0.00017655750779297584
5124,1,0.9934981567702003,21.526812980235793,0.0,0.0,-0.132,0.0025700000000000002,0.0,-0.0004045130546779902
5126,1,1.000745138801643,22.444399878905983,0.0,0.0,-0.327,0.0604,0.0,-0.0005263536161418113
5127,1,0.9964189784896974,23.196639046693498,0.0,0.0,-0.218,0.0168,0.0,-0.00041304737517390284
5128,1,0.9892671571225807,17.25655838074998,0.0,0.0,0.0,0.0,0.0,-0.0004131919229604754
5131,1,0.9647461869975359,-8.61959180564921,0.0,0.0,0.0,0.0,0.0,9.228708170745758e-5
5132,1,0.9739613887746715,-6.150182856957017,0.0,0.0,0.023999999999999994,-0.013999999999999999,0.0,-0.00014174019670620176
5133,1,0.9728926238765132,-11.1208692363336,0.0,0.0,1.3869999999999998,0.447,0.0,9.55648217330776e-5
5134,2,0.9728926238765132,-11.1208692363336,0.0,0.0,0.0,0.0,0.0,0.0
5135,1,0.9759728783961203,-9.07896988620038,0.0,0.0,0.0,0.0,0.0,-0.00010275529197315133
5136,1,0.9760054997412287,-9.079019019321088,0.0,0.0,0.0,0.0,0.0,-0.000102748289879656
5137,1,0.9758534222274008,-9.056903205348561,0.0,0.0,0.0,0.0,0.0,-0.00010273891616203559
5138,1,0.9758852319049749,-9.056903205348561,0.0,0.0,0.0,0.0,0.0,-0.0001027322188702308
5139,1,0.977466805898611,-11.126080265872803,0.0,0.0,0.0,0.0,0.0,0.00132567564457283
5140,1,1.0232341104547955,-6.608612990722181,0.0,0.0,0.0,0.0,0.0,8.943815477840773e-5
5141,1,0.9697908259155235,-7.5065792235025715,0.0,0.0,0.0,0.0,0.0,3.5144770707748015e-12
5142,1,0.9699065493313251,-7.359273891878972,0.0,0.0,0.0,0.0,0.0,-1.29574348887338e-5
5143,1,0.9770603074043396,-11.125445076650681,0.0,0.0,0.0,0.0,0.0,0.0013267863206398427
5144,1,0.9196979604657687,-7.5065792235025715,0.0,0.0,0.0,0.0,0.0,3.5463266531924018e-12
5145,2,0.9758898301767979,-7.5065792235025715,0.0,0.6622835046835732,0.0,0.0,0.0,0.0
5146,1,0.977388054909697,-11.147550572915636,0.0,0.0,0.0,0.0,0.0,0.0013193433831795015
5147,2,0.9758898301767979,-7.5065792235025715,0.0,0.6622835046835732,0.0,0.0,0.0,0.0
5148,1,0.976984415097892,-11.146918321356992,0.0,0.0,0.0,0.0,0.0,0.0013204411428382075
5149,1,0.9725778884180956,-1.9122443804951141,0.0,0.0,0.0,0.0,0.0,0.00031371259879086114
5150,1,0.9656190138259048,-8.563859417152328,0.0,0.0,0.0,0.0,0.0,0.0001319012185699248
5151,2,0.9694970018332376,-8.563859417152328,0.0,0.0,0.0,0.0,0.0,0.0
5152,1,0.9553286344527172,-8.837877787235673,0.0,0.0,0.0,0.0,0.0,-4.7772703759345134e-6
5154,2,0.9694970018332377,-8.563859417152328,0.0,0.0,0.0,0.0,0.0,0.0
5155,1,0.9838453009932699,-2.2534432914794014,0.0,0.0,0.0,0.0,0.0,0.0003062274720961257
5156,1,0.9677700983000371,-23.033337096506244,0.0,0.0,3.693,0.599,0.0,-5.952234028921251e-6
5157,1,0.9942995499097378,-10.611306005095985,0.0,0.0,0.0,0.0,0.0,-4.923597052941054e-6
5158,1,0.9860058946421035,-11.772139208118345,0.0,0.0,0.12200000000000001,0.049,0.0,-5.009203429612175e-6
5159,1,0.9956323457992571,-10.337682019228033,0.0,0.0,0.0,0.0,0.0,-4.902231410046238e-6
5160,1,0.9887543407683195,-11.25681847962508,0.0,0.0,0.09699999999999999,0.040999999999999995,0.0,-4.972201238615652e-6
5162,1,0.9657106507809994,-7.363393964767716,0.0,0.0,0.0,0.0,0.0,-0.00023154148293535117
5164,1,0.9773717999275854,-8.837755460767683,0.0,0.0,0.0,0.0,0.0,-4.777450586425913e-6
5165,1,0.9773717857522164,-8.837755784568282,0.0,0.0,0.0,0.0,0.0,-4.7774502291380225e-6
5166,1,0.9780686336569877,-12.599429952478307,0.0,0.0,0.143,0.053,0.0,-5.066720687188168e-6
5167,1,0.9658388974331048,-1.0071985416716764,0.0,0.0,0.0,0.0,0.0,0.0003101514405646853
5168,1,0.9885962793087407,18.085785921191007,0.0,0.0,0.0,0.0,0.0,-0.00040079888680178083
5169,1,0.9736431357878457,18.53288119518347,0.0,0.0,0.0,0.0,0.0,-0.000406531728646652
5170,1,0.9954532824011865,24.514421411419914,0.0,0.0,-0.792,0.0978,0.0,-0.0003189347921529277
5176,1,1.0487410107482842,5.217926813872823,0.0,0.0,0.0,0.0,0.0,0.0003332737979131363
5178,2,0.9733089963712113,-5.6201317978727445,0.0,0.0,0.0,0.0,0.0,0.0
5180,1,1.0374874272712709,-2.7733317184236195,0.0,0.0,0.0,0.0,0.0,-7.130920760142603e-5
5181,1,0.9733085793317693,-5.620126972665687,0.0,0.0,0.8,0.233,0.0,-0.0001411760482721172
5183,1,0.9740584864380948,-8.030180985058365,0.0,0.0,1.2990000000000002,0.48,0.0,-0.000146549267021957
5184,1,0.9733089963712113,-5.6201317978727445,0.0,0.0,0.0,0.0,0.0,-0.00014117600397316887
5191,1,0.9650961950840199,-7.363422137466791,0.0,0.0,0.0,0.0,0.0,-0.0002591184259602743
5193,1,0.9803022051886593,-15.279197125497271,0.0,0.0,1.9969999999999999,0.743,0.0,-0.001913749535170711
5196,1,0.9793728154528253,-15.424077240691446,0.0,0.0,-0.079,-0.002526,0.0,-0.0019950324434119247
5199,1,0.979093711057003,-15.723114985293337,0.0,0.0,0.0,0.0,0.0,-0.0019961155073291623
5200,1,1.049801388697054,5.032149812015552,0.0,0.0,0.0,0.0,0.0,-0.00030214943727780054
5201,1,0.9742838105151093,-5.283548921850264,0.0,0.0,0.0,0.0,0.0,-0.0003899059071642454
5202,1,0.9927049187894721,3.6116350079088373,0.0,0.0,0.0,0.0,0.0,-0.00037477713079073644
5203,1,0.9783136604935044,-7.070806267265849,0.0,0.0,0.0,0.0,0.0,-0.0010477929846687487
5204,1,1.001809614433486,-7.155303797588209,0.0,0.0,0.0,0.0,0.0,-0.0007078783607128193
5205,2,1.0500000101586469,-7.155303797588209,0.0,0.1927615847655929,0.0,0.0,0.0,0.0
5206,1,0.9784782838495552,-7.15839364062659,0.0,0.0,0.0,0.0,0.0,-0.0010793449143875033
5207,1,0.9770043070122557,-7.155303797588209,0.0,0.0,0.0,0.0,0.0,-0.0010981082641786984
5208,1,0.9781816854386818,-7.15839364062659,0.0,0.0,0.0,0.0,0.0,-0.0010799993600571988
5209,1,0.9787675870538478,-7.15839364062659,0.0,0.0,0.0,0.0,0.0,-0.0010787070445427167
5211,1,0.9716134187871034,-4.946276567482551,0.0,0.0,0.0,0.0,0.0,-0.00035350462175306584
5212,1,0.97129473596982,-5.013455244690933,0.0,0.0,0.0,0.0,0.0,-0.0003551596375702548
5213,1,0.9826659215513422,-10.4756921372607,0.0,0.0,2.952,0.971,0.0,-0.00038503146624823065
5214,1,0.9818097999998846,-10.735192912707603,0.0,0.0,0.0,0.0,0.0,-0.0003861707437670646
5215,1,0.9818625167793847,-10.735192912707603,0.0,0.0,0.0,0.0,0.0,-0.0003861292786011625
5216,1,0.9934037343302039,2.7156553124315215,0.0,0.0,0.0,0.0,0.0,-0.00038018853688522226
5218,2,0.9716135498504068,-4.9462804318663265,0.0,0.0,0.0,0.0,0.0,0.0
5219,2,0.9716135498504068,-4.9462804318663265,0.0,0.0,0.0,0.0,0.0,0.0
5220,2,0.9938956354169386,2.8880507990352253,0.0,0.0,0.0,0.0,0.0,0.0
5222,1,0.9938956354169386,2.8880507990352253,0.0,0.0,0.0,0.0,0.0,-0.00038416725330928797
5226,1,0.9992652304592059,1.1867189272540888,0.0,0.0,-0.23600000000000002,-0.001,0.0,-0.00040281726738053625
5231,1,0.9961965879327142,3.398517508364643,0.0,0.0,0.0,0.0,0.0,-0.00209016972790699
5232,2,1.0500000103318106,3.3893010858863994,0.0,0.20000000662524872,0.0,0.0,0.0,0.0
5235,1,0.997169574625932,3.790534466773015,0.0,0.0,0.0,0.0,0.0,-0.0034070954847297474
5236,1,0.9960153077851222,3.398517508364643,0.0,0.0,0.0,0.0,0.0,-0.0020909305721451394
5237,1,1.0080425150249077,3.3893010858863994,0.0,0.0,0.0,0.0,0.0,-0.0016415458835519038
5238,1,1.0223860612247424,3.3893010858863994,0.0,0.0,0.0,0.0,0.0,-0.001163117880801628
5239,1,0.9822740771312992,2.8880507990352253,0.0,0.0,0.0,0.0,0.0,-0.000422452800124294
5240,2,0.995233727779226,9.916826970959328,0.0,0.0,0.0,0.0,0.0,0.0
5241,1,1.0000562012484426,11.15057154906876,0.0,0.0,0.0,0.0,0.0,-0.0006075287484223061
5242,2,0.995233727779226,9.916826970959328,0.0,0.0,0.0,0.0,0.0,0.0
5243,1,1.0129993605510783,8.165424361309103,0.0,0.0,1.6480000000000001,0.040999999999999995,0.0,-0.0006123125604537469
5245,1,0.9995516119471386,11.405071278323634,0.0,0.0,0.0,0.0,0.0,-0.0005753728710914838
5246,1,0.9949082211877208,9.922458036304382,0.0,0.0,1.014,0.08,0.0,-0.0005786908220594012
5247,1,0.9984905870040788,1.0921743748262775,0.0,0.0,0.0,0.0,0.0,-0.00040381773647304737
5248,1,0.9985163673039946,1.0921743748262775,0.0,0.0,0.0,0.0,0.0,-0.0004037968850230165
5249,1,0.950002905460139,1.3427033867607794,0.0,0.0,0.0,0.0,0.0,-0.00903644519360469
5252,1,1.0409655563244933,9.58187928215293,0.0,0.0,0.0,0.0,0.0,-0.002301272853928359
5253,1,1.0070224475241887,7.898800040572354,0.0,0.0,0.0,0.0,0.0,-0.0023288689706972582
5254,1,1.0037504776245578,12.571686960652018,0.0,0.0,0.0,0.0,0.0,-0.0009786952917815262
5255,1,1.0442847861708044,10.1648073102942,0.0,0.0,0.0,0.0,0.0,-0.0022405142121399656
5256,1,1.0079426621511403,7.898800040572354,0.0,0.0,0.0,0.0,0.0,-0.002324620503358353
5257,1,0.9951799168733381,9.91753153319749,0.0,0.0,0.0,0.0,0.0,-0.0005786175407639553
5258,1,0.995233727779226,9.916826970959328,0.0,0.0,0.0,0.0,0.0,-0.0005785960234975192
5259,1,0.9986952865690837,1.1138232818081832,0.0,0.0,0.0,0.0,0.0,-0.000403566676121585
5262,1,1.018272333990541,15.954092497087915,0.0,0.0,0.0,0.0,0.0,-0.0008626089188691402
5263,1,1.0110496030656508,15.695483404418658,0.0,0.0,0.34900000000000003,0.01,0.0,-0.0008707571809596664
5264,1,0.9986676465461278,1.1138232818081832,0.0,0.0,0.0,0.0,0.0,-0.0004035890150339123
5265,1,1.013538119714188,15.948763635780507,0.0,0.0,0.0,0.0,0.0,-0.0008621366749008968
5267,1,1.013538119714188,15.948763635780507,0.0,0.0,0.0,0.0,0.0,-0.0008621366749008968
5268,1,1.0131662282708025,15.948763635780507,0.0,0.0,0.0,0.0,0.0,-0.0008627695841753838
5269,1,1.0131662282708025,15.948763635780507,0.0,0.0,0.0,0.0,0.0,-0.0008627695841753838
5271,1,0.9724439917175259,-5.026519123469769,0.0,0.0,0.0,0.0,0.0,-0.0003303608182279132
5272,1,0.9850907049736581,-4.487285996432499,0.0,0.0,0.0,0.0,0.0,-0.0003265327790430227
5273,1,0.9814230621466891,-7.506168154781876,0.0,0.0,1.963,0.7390000000000001,0.0,-0.0003466560098268903
5274,1,0.985157175350079,-4.487372736767683,0.0,0.0,0.0,0.0,0.0,-0.0003264883551434094
5276,1,1.014087123416817,7.940572061290136,0.0,0.0,0.0,0.0,0.0,-0.0006124195322635975
5277,1,1.0141338899422525,7.940572061290136,0.0,0.0,0.0,0.0,0.0,-0.000612363051762598
5281,1,0.9595177275568921,-7.889873969113669,0.0,0.0,0.0,0.0,0.0,0.00011443909431373417
5283,1,0.9706662637681903,-10.831089491314703,0.0,0.0,1.6059999999999999,0.565,0.0,0.00011961576445733672
5285,1,1.0183786632315397,6.619583742060309,0.0,0.0,0.0,0.0,0.0,-5.593271915582627e-5
5286,1,1.0183674890857857,6.619608459896194,0.0,0.0,0.0,0.0,0.0,-5.59339343640826e-5
5287,1,0.9772226807567551,5.2119850302883775,0.0,0.0,0.0,0.0,0.0,0.0005228784864926972
5288,1,0.9770866530232128,5.2119850302883775,0.0,0.0,0.0,0.0,0.0,0.0005230240944640516
5291,1,0.9606107717154637,-13.806281840335767,0.0,0.0,0.0,0.0,0.0,3.735934018336037e-5
...
